Version 4
SHEET 1 2856 680
WIRE -544 -96 -944 -96
WIRE -368 -64 -432 -64
WIRE -128 -64 -368 -64
WIRE 64 -64 -64 -64
WIRE 176 -64 144 -64
WIRE 272 -64 176 -64
WIRE 576 -64 272 -64
WIRE -544 -16 -544 -96
WIRE -432 -16 -432 -64
WIRE -944 0 -944 -96
WIRE -368 80 -368 -64
WIRE -336 80 -368 80
WIRE -192 80 -256 80
WIRE -64 80 -64 48
WIRE -64 80 -112 80
WIRE 272 80 272 -64
WIRE 576 80 576 -64
WIRE 176 112 176 -64
WIRE -944 160 -944 80
WIRE -544 160 -544 64
WIRE -544 160 -944 160
WIRE -432 352 -432 64
WIRE 176 352 176 176
WIRE 176 352 -432 352
WIRE 272 352 272 160
WIRE 272 352 176 352
WIRE 576 352 576 160
WIRE 576 352 272 352
WIRE -944 400 -944 160
WIRE 272 464 272 352
FLAG -944 400 0
FLAG 272 464 0
SYMBOL voltage -944 -16 R0
WINDOW 123 0 0 Left 0
WINDOW 39 24 124 Left 2
SYMATTR SpiceLine Rser=.1
SYMATTR InstName V1
SYMATTR Value SINE(0 169 60)
SYMBOL ind2 -560 -32 R0
SYMATTR InstName L1
SYMATTR Value 1
SYMATTR Type ind
SYMBOL ind2 -416 -32 M0
SYMATTR InstName L2
SYMATTR Value 10m
SYMATTR Type ind
SYMBOL cap 160 112 R0
SYMATTR InstName C1
SYMATTR Value 4700µ
SYMBOL res 160 -80 R90
WINDOW 0 0 56 VBottom 2
WINDOW 3 32 56 VTop 2
SYMATTR InstName R5
SYMATTR Value 0.1
SYMBOL res 256 64 R0
SYMATTR InstName R4
SYMATTR Value 100
SYMATTR SpiceLine pwr=5
SYMBOL Misc\\SCR -128 -48 R270
WINDOW 0 36 -25 VRight 2
WINDOW 3 38 55 VRight 2
SYMATTR InstName U1
SYMATTR Value MCR100-003
SYMBOL res -96 64 R90
WINDOW 0 0 56 VBottom 2
WINDOW 3 32 56 VTop 2
SYMATTR InstName R1
SYMATTR Value 10k
SYMBOL res 560 64 R0
SYMATTR InstName R2
SYMATTR Value 5.56
SYMBOL res -240 64 R90
WINDOW 0 0 56 VBottom 2
WINDOW 3 32 56 VTop 2
SYMATTR InstName R3
SYMATTR Value 100k
SYMBOL diode -48 48 R180
WINDOW 0 24 64 Left 2
WINDOW 3 -89 -2 Left 2
SYMATTR InstName D1
SYMATTR Value 1N4007
TEXT -1448 -272 Left 2 !.MODEL DI_6A10 D  ( IS=52.4n RS=7.00m BV=1.00k IBV=10.0u\n+ CJO=60.0p  M=0.333 N=1.70 TT=2.88u )
TEXT -1440 -336 Left 4 ;Models
TEXT -1440 -160 Left 2 !.tran 0 200m 0 10u
TEXT -672 -152 Left 2 !K1 L1 L2 1
TEXT -1440 -208 Left 2 !.inc IRFZ44N.sub
TEXT -1440 536 Left 2 !.inc C:\\Users\\Rafa\\Desktop\\Octavo semestre\\Pelectronics\\MCR100.txt
